
#======================================================================
# CRYSTAL DATA
#----------------------------------------------------------------------
data_VESTA_phase_1

_chemical_name_common                  ''
_cell_length_a                         13.011(2)
_cell_length_b                         7.5420(10)
_cell_length_c                         9.4520(10)
_cell_angle_alpha                      90.000000
_cell_angle_beta                       90.000000
_cell_angle_gamma                      90.000000
_cell_volume                           927.514871
_space_group_name_H-M_alt              'C m c m'
_space_group_IT_number                 63

loop_
_space_group_symop_operation_xyz
   'x, y, z'
   '-x, -y, -z'
   '-x, -y, z+1/2'
   'x, y, -z+1/2'
   '-x, y, -z+1/2'
   'x, -y, z+1/2'
   'x, -y, -z'
   '-x, y, z'
   'x+1/2, y+1/2, z'
   '-x+1/2, -y+1/2, -z'
   '-x+1/2, -y+1/2, z+1/2'
   'x+1/2, y+1/2, -z+1/2'
   '-x+1/2, y+1/2, -z+1/2'
   'x+1/2, -y+1/2, z+1/2'
   'x+1/2, -y+1/2, -z'
   '-x+1/2, y+1/2, z'

loop_
   _atom_site_label
   _atom_site_occupancy
   _atom_site_fract_x
   _atom_site_fract_y
   _atom_site_fract_z
   _atom_site_adp_type
   _atom_site_U_iso_or_equiv
   _atom_site_type_symbol
   Ga1         1.0     0.166500     0.167700     0.071500    Uiso  1.000000 Ga
   Ga2         1.0     0.106600     0.442200     0.250000    Uiso  1.000000 Ga
   Tb3         1.0     0.335600     0.332400     0.250000    Uiso  1.000000 Tb
   Ga4         1.0     0.000000     0.334500     0.557200    Uiso  1.000000 Ga
   Ir5         1.0     0.328600     0.000000     0.000000    Uiso  1.000000 Ir
   Ga6         1.0     0.000000     0.121600     0.250000    Uiso  1.000000 Ga
   Ir7         1.0     0.000000     0.000000     0.000000    Uiso  1.000000 Ir
